37
EXTEST42 from DOI: 10.1021/acs.jpclett.2c03698
O     0.6667406   -0.7912157    2.1728727 
C     1.3220406   -1.7494719    1.8037293 
O     1.8134711   -2.6672268    2.6800205 
C     1.6790979   -2.0608338    0.3891578 
C     2.4512658   -3.1993590    0.0815882 
C     2.8071695   -3.4848581   -1.2398229 
C     2.3958289   -2.6270194   -2.2697772 
C     1.6287575   -1.4925235   -1.9742418 
C     1.2586300   -1.1918458   -0.6503661 
C     0.4221128    0.0209703   -0.4093855 
C    -1.0069536   -0.1216990   -0.2760751 
C    -1.6897083   -1.3636153   -0.3109415 
C    -3.0677156   -1.4416435   -0.1601947 
C    -3.8172183   -0.2568228    0.0328145 
O    -5.1617464   -0.3898717    0.1768298 
C    -3.1766631    0.9910812    0.0667173 
C    -1.7865725    1.0484118   -0.0870629 
O    -1.2195167    2.2828919   -0.0494531 
C     0.1427707    2.4539466   -0.1984569 
C     0.6325086    3.7304502   -0.1603326 
C     2.0650638    3.9933459   -0.3022552 
O     2.5465242    5.1378411   -0.2765733 
C     2.9197750    2.7973996   -0.4777437 
C     2.4095105    1.5340300   -0.5150027 
C     0.9892377    1.2879810   -0.3866273 
H     1.5271942   -2.3619856    3.5660214 
H     2.7704803   -3.8522595    0.8974552 
H     3.4072438   -4.3719607   -1.4655735 
H     2.6724815   -2.8391358   -3.3077341 
H     1.3055692   -0.8212230   -2.7759208 
H    -1.1070834   -2.2777715   -0.4593852 
H    -3.5942891   -2.3989949   -0.1857558 
H    -5.5578459    0.4912608    0.3049862 
H    -3.7329313    1.9225448    0.2118897 
H    -0.0397767    4.5801126   -0.0181067 
H     3.9940934    2.9849171   -0.5740021 
H     3.0657535    0.6666524   -0.6414918 
