39
Structure: R14 Stoichiometry: C12H21O2N2PRu+
   C     2.328175   -1.311506    0.438590
   C     2.354441    0.169237    0.128930
   N     1.117219    0.721770    0.029603
   C     0.929407    2.103474   -0.125985
   C     2.126079    2.908635   -0.190316
   C     3.375012    2.328266   -0.115197
   C     3.519072    0.919601    0.048477
   C    -0.379874    2.585717   -0.195463
   P    -1.684314    1.378971   -0.115349
   H     4.500918    0.446006    0.127427
   H     2.018069    3.990537   -0.312508
   H     4.269486    2.958195   -0.180302
   C     1.501933   -2.188015   -1.675108
   C     0.912226   -3.296535    0.407631
   H    -0.570338    3.658999   -0.302478
   H     2.177451   -1.448590    1.524146
   H     3.285784   -1.798993    0.168371
   C    -2.832298    1.636728   -1.542368
   C    -2.802934    1.853747    1.298530
   H    -3.667841    0.918044   -1.481093
   H    -3.230738    2.666776   -1.546549
   H    -2.268647    1.453667   -2.470233
   H    -3.664744    1.165273    1.350753
   H    -2.236317    1.798324    2.244254
   H    -3.171940    2.888063    1.177630
   H     1.807611   -3.952028    0.374095
   H     0.623806   -3.122075    1.455211
   H     0.080766   -3.789330   -0.117365
   H     2.375515   -2.864414   -1.787046
   H     0.626702   -2.617076   -2.182787
   H     1.730642   -1.210441   -2.123411
   C    -2.023063   -1.650145   -0.158965
   O    -2.999149   -2.301314   -0.247193
   Ru   -0.526372   -0.571196   -0.050393
   H    -0.604388   -0.442404   -1.626830
   O    -0.129120   -0.631117    2.282764
   H    -1.033021   -0.510719    2.627358
   H     0.261227    0.266633    2.300561
   N     1.181664   -1.993505   -0.239429
